<?xml version="1.0" ?>
<configuration>
    <input>
        <net-file value="piedmont.net.xml"/>
        <route-files value="../routes/piedmont.rou.xml"/>
        <additional-files value="../polygons/piedmont.poly.xml"/>
    </input>
    <time>
        <begin value="0"/>
        <end value="3600"/>
    </time>
    <report>
        <verbose value="true"/>
    </report>
</configuration>
