<?xml version="1.0" encoding="UTF-8"?>

<!-- generated on 2026-06-20T14:43:54.538373+05:30 by Eclipse SUMO netconvert 1.26.0
<netconvertConfiguration xmlns:xsi="http://www.w3.org/2001/XMLSchema-instance" xsi:noNamespaceSchemaLocation="http://sumo.dlr.de/xsd/netconvertConfiguration.xsd">

    <input>
        <osm-files value="C:\Users\Asus\OneDrive\Desktop\projects\urban congestion\networks\osm\piedmont.osm"/>
    </input>

    <output>
        <output-file value="C:\Users\Asus\OneDrive\Desktop\projects\urban congestion\networks\sumo\piedmont.net.xml"/>
    </output>

    <projection>
        <proj.utm value="true"/>
    </projection>

    <processing>
        <geometry.remove value="true"/>
        <roundabouts.guess value="true"/>
    </processing>

    <tls_building>
        <tls.guess-signals value="true"/>
    </tls_building>

    <junctions>
        <junctions.join value="true"/>
    </junctions>

</netconvertConfiguration>
-->

<net version="1.20" junctionCornerDetail="5" limitTurnSpeed="5.50" xmlns:xsi="http://www.w3.org/2001/XMLSchema-instance" xsi:noNamespaceSchemaLocation="http://sumo.dlr.de/xsd/net_file.xsd">

    <location netOffset="-566064.24,-4185278.55" convBoundary="0.00,0.00,3247.94,2116.06" origBoundary="-122.249336,37.812289,-122.212491,37.831467" projParameter="+proj=utm +zone=10 +ellps=WGS84 +datum=WGS84 +units=m +no_defs"/>

    <type id="highway.residential" priority="3" numLanes="1" speed="13.89" disallow="tram rail_urban rail rail_electric rail_fast ship container cable_car subway aircraft wheelchair scooter drone" oneway="0"/>
    <type id="highway.secondary" priority="11" numLanes="1" speed="27.78" disallow="tram rail_urban rail rail_electric rail_fast ship container cable_car subway aircraft wheelchair scooter drone" oneway="0"/>
    <type id="highway.tertiary" priority="10" numLanes="1" speed="22.22" disallow="tram rail_urban rail rail_electric rail_fast ship container cable_car subway aircraft wheelchair scooter drone" oneway="0"/>
    <type id="highway.tertiary_link" priority="5" numLanes="1" speed="22.22" disallow="tram rail_urban rail rail_electric rail_fast ship container cable_car subway aircraft wheelchair scooter drone" oneway="0"/>
    <type id="highway.unclassified" priority="4" numLanes="1" speed="13.89" disallow="tram rail_urban rail rail_electric rail_fast ship container cable_car subway aircraft wheelchair scooter drone" oneway="0"/>

    <edge id=":10232094660_0" function="internal">
        <lane id=":10232094660_0_0" index="0" disallow="tram rail_urban rail rail_electric rail_fast ship container cable_car subway aircraft wheelchair scooter drone" speed="6.33" length="15.36" shape="3243.11,630.27 3245.72,634.61 3245.75,636.87 3243.20,637.04 3238.07,635.12"/>
    </edge>
    <edge id=":10232094660_1" function="internal">
        <lane id=":10232094660_1_0" index="0" disallow="tram rail_urban rail rail_electric rail_fast ship container cable_car subway aircraft wheelchair scooter drone" speed="3.24" length="3.20" shape="3243.11,630.27 3240.52,632.14"/>
    </edge>
    <edge id=":10232094660_2" function="internal">
        <lane id=":10232094660_2_0" index="0" disallow="tram rail_urban rail rail_electric rail_fast ship container cable_car subway aircraft wheelchair scooter drone" speed="3.65" length="1.44" shape="3243.11,630.27 3243.17,631.71"/>
    </edge>
    <edge id=":10232094660_6" function="internal">
        <lane id=":10232094660_6_0" index="0" disallow="tram rail_urban rail rail_electric rail_fast ship container cable_car subway aircraft wheelchair scooter drone" speed="3.65" length="3.23" shape="3243.17,631.71 3242.75,632.50 3241.87,632.65 3240.52,632.14"/>
    </edge>
    <edge id=":10232094660_3" function="internal">
        <lane id=":10232094660_3_0" index="0" disallow="tram rail_urban rail rail_electric rail_fast ship container cable_car subway aircraft wheelchair scooter drone" speed="6.33" length="15.36" shape="3243.11,630.27 3245.72,634.61 3245.75,636.87 3243.20,637.04 3238.07,635.12"/>
    </edge>
    <edge id=":10232094660_4" function="internal">
        <lane id=":10232094660_4_0" index="0" disallow="tram rail_urban rail rail_electric rail_fast ship container cable_car subway aircraft wheelchair scooter drone" speed="3.24" length="3.20" shape="3243.11,630.27 3240.52,632.14"/>
    </edge>
    <edge id=":10232094660_5" function="internal">
        <lane id=":10232094660_5_0" index="0" disallow="tram rail_urban rail rail_electric rail_fast ship container cable_car subway aircraft wheelchair scooter drone" speed="3.65" length="4.67" shape="3243.11,630.27 3243.17,631.71 3242.75,632.50 3241.87,632.65 3240.52,632.14"/>
    </edge>
    <edge id=":10677487586_0" function="internal">
        <lane id=":10677487586_0_0" index="0" disallow="tram rail_urban rail rail_electric rail_fast ship container cable_car subway aircraft wheelchair scooter drone" speed="3.24" length="3.20" shape="1574.75,450.50 1573.01,453.18"/>
    </edge>
    <edge id=":10677487586_1" function="internal">
        <lane id=":10677487586_1_0" index="0" disallow="tram rail_urban rail rail_electric rail_fast ship container cable_car subway aircraft wheelchair scooter drone" speed="3.24" length="3.20" shape="1574.75,450.50 1573.01,453.18"/>
    </edge>
    <edge id=":10677487589_0" function="internal">
        <lane id=":10677487589_0_0" index="0" disallow="tram rail_urban rail rail_electric rail_fast ship container cable_car subway aircraft wheelchair scooter drone" speed="3.24" length="3.20" shape="1548.06,436.95 1549.80,434.27"/>
    </edge>
    <edge id=":10677487589_1" function="internal">
        <lane id=":10677487589_1_0" index="0" disallow="tram rail_urban rail rail_electric rail_fast ship container cable_car subway aircraft wheelchair scooter drone" speed="3.24" length="3.20" shape="1548.06,436.95 1549.80,434.27"/>
    </edge>
    <edge id=":10684132265_0" function="internal">
        <lane id=":10684132265_0_0" index="0" disallow="tram rail_urban rail rail_electric rail_fast ship container cable_car subway aircraft wheelchair scooter drone" speed="4.77" length="6.40" shape="1372.77,1684.03 1381.53,1687.95"/>
        <lane id=":10684132265_0_1" index="1" disallow="tram rail_urban rail rail_electric rail_fast ship container cable_car subway aircraft wheelchair scooter drone" speed="3.24" length="6.40" shape="1375.69,1685.34 1378.61,1686.64"/>
    </edge>
    <edge id=":10684132265_2" function="internal">
        <lane id=":10684132265_2_0" index="0" disallow="tram rail_urban rail rail_electric rail_fast ship container cable_car subway aircraft wheelchair scooter drone" speed="4.77" length="6.40" shape="1372.77,1684.03 1381.53,1687.95"/>
        <lane id=":10684132265_2_1" index="1" disallow="tram rail_urban rail rail_electric rail_fast ship container cable_car subway aircraft wheelchair scooter drone" speed="3.24" length="6.40" shape="1375.69,1685.34 1378.61,1686.64"/>
    </edge>
    <edge id=":10684132266_0" function="internal">
        <lane id=":10684132266_0_0" index="0" disallow="tram rail_urban rail rail_electric rail_fast ship container cable_car subway aircraft wheelchair scooter drone" speed="3.24" length="3.20" shape="1475.77,1690.80 1478.87,1691.58"/>
    </edge>
    <edge id=":10684132266_1" function="internal">
        <lane id=":10684132266_1_0" index="0" disallow="tram rail_urban rail rail_electric rail_fast ship container cable_car subway aircraft wheelchair scooter drone" speed="3.24" length="3.20" shape="1475.77,1690.80 1478.87,1691.58"/>
    </edge>
    <edge id=":10684132267_0" function="internal">
        <lane id=":10684132267_0_0" index="0" disallow="tram rail_urban rail rail_electric rail_fast ship container cable_car subway aircraft wheelchair scooter drone" speed="3.24" length="3.20" shape="1396.19,1674.66 1395.07,1677.66"/>
    </edge>
    <edge id=":10684132267_1" function="internal">
        <lane id=":10684132267_1_0" index="0" disallow="tram rail_urban rail rail_electric rail_fast ship container cable_car subway aircraft wheelchair scooter drone" speed="3.24" length="3.20" shape="1396.19,1674.66 1395.07,1677.66"/>
    </edge>
    <edge id=":10684138239_0" function="internal">
        <lane id=":10684138239_0_0" index="0" disallow="tram rail_urban rail rail_electric rail_fast ship container cable_car subway aircraft wheelchair scooter drone" speed="3.24" length="3.20" shape="1275.79,1260.11 1278.73,1261.37"/>
    </edge>
    <edge id=":10684138239_1" function="internal">
        <lane id=":10684138239_1_0" index="0" disallow="tram rail_urban rail rail_electric rail_fast ship container cable_car subway aircraft wheelchair scooter drone" speed="3.24" length="3.20" shape="1275.79,1260.11 1278.73,1261.37"/>
    </edge>
    <edge id=":10734085027_0" function="internal">
        <lane id=":10734085027_0_0" index="0" disallow="tram rail_urban rail rail_electric rail_fast ship container cable_car subway aircraft wheelchair scooter drone" speed="3.24" length="3.20" shape="545.64,1931.75 548.24,1933.61"/>
    </edge>
    <edge id=":10734085027_1" function="internal">
        <lane id=":10734085027_1_0" index="0" disallow="tram rail_urban rail rail_electric rail_fast ship container cable_car subway aircraft wheelchair scooter drone" speed="3.24" length="3.20" shape="545.64,1931.75 548.24,1933.61"/>
    </edge>
    <edge id=":10734085028_0" function="internal">
        <lane id=":10734085028_0_0" index="0" disallow="tram rail_urban rail rail_electric rail_fast ship container cable_car subway aircraft wheelchair scooter drone" speed="3.24" length="3.20" shape="541.29,1943.28 538.69,1941.42"/>
    </edge>
    <edge id=":10734085028_1" function="internal">
        <lane id=":10734085028_1_0" index="0" disallow="tram rail_urban rail rail_electric rail_fast ship container cable_car subway aircraft wheelchair scooter drone" speed="3.24" length="3.20" shape="541.29,1943.28 538.69,1941.42"/>
    </edge>
    <edge id=":10734085032_0" function="internal">
        <lane id=":10734085032_0_0" index="0" disallow="tram rail_urban rail rail_electric rail_fast ship container cable_car subway aircraft wheelchair scooter drone" speed="3.24" length="3.20" shape="454.65,1776.52 454.27,1779.70"/>
    </edge>
    <edge id=":10734085032_1" function="internal">
        <lane id=":10734085032_1_0" index="0" disallow="tram rail_urban rail rail_electric rail_fast ship container cable_car subway aircraft wheelchair scooter drone" speed="3.24" length="3.20" shape="454.65,1776.52 454.27,1779.70"/>
    </edge>
    <edge id=":10735457401_0" function="internal">
        <lane id=":10735457401_0_0" index="0" disallow="tram rail_urban rail rail_electric rail_fast ship container cable_car subway aircraft wheelchair scooter drone" speed="3.24" length="3.20" shape="590.81,1751.76 593.45,1753.58"/>
    </edge>
    <edge id=":10735457401_1" function="internal">
        <lane id=":10735457401_1_0" index="0" disallow="tram rail_urban rail rail_electric rail_fast ship container cable_car subway aircraft wheelchair scooter drone" speed="3.24" length="3.20" shape="590.81,1751.76 593.45,1753.58"/>
    </edge>
    <edge id=":10735471389_0" function="internal">
        <lane id=":10735471389_0_0" index="0" disallow="tram rail_urban rail rail_electric rail_fast ship container cable_car subway aircraft wheelchair scooter drone" speed="3.24" length="3.20" shape="576.14,1455.68 573.93,1457.99"/>
    </edge>
    <edge id=":10735471389_1" function="internal">
        <lane id=":10735471389_1_0" index="0" disallow="tram rail_urban rail rail_electric rail_fast ship container cable_car subway aircraft wheelchair scooter drone" speed="3.24" length="3.20" shape="576.14,1455.68 573.93,1457.99"/>
    </edge>
    <edge id=":10735471420_0" function="internal">
        <lane id=":10735471420_0_0" index="0" disallow="tram rail_urban rail rail_electric rail_fast ship container cable_car subway aircraft wheelchair scooter drone" speed="3.24" length="3.20" shape="686.59,1774.09 689.73,1774.69"/>
    </edge>
    <edge id=":10735471420_1" function="internal">
        <lane id=":10735471420_1_0" index="0" disallow="tram rail_urban rail rail_electric rail_fast ship container cable_car subway aircraft wheelchair scooter drone" speed="3.24" length="3.20" shape="686.59,1774.09 689.73,1774.69"/>
    </edge>
    <edge id=":10735516023_0" function="internal">
        <lane id=":10735516023_0_0" index="0" disallow="tram rail_urban rail rail_electric rail_fast ship container cable_car subway aircraft wheelchair scooter drone" speed="3.24" length="3.20" shape="798.32,1844.91 797.76,1848.05"/>
    </edge>
    <edge id=":10735516023_1" function="internal">
        <lane id=":10735516023_1_0" index="0" disallow="tram rail_urban rail rail_electric rail_fast ship container cable_car subway aircraft wheelchair scooter drone" speed="3.24" length="3.20" shape="798.32,1844.91 797.76,1848.05"/>
    </edge>
    <edge id=":10740564884_0" function="internal">
        <lane id=":10740564884_0_0" index="0" disallow="tram rail_urban rail rail_electric rail_fast ship container cable_car subway aircraft wheelchair scooter drone" speed="3.24" length="3.20" shape="335.66,1659.08 338.18,1661.06"/>
    </edge>
    <edge id=":10740564884_1" function="internal">
        <lane id=":10740564884_1_0" index="0" disallow="tram rail_urban rail rail_electric rail_fast ship container cable_car subway aircraft wheelchair scooter drone" speed="3.24" length="3.20" shape="335.66,1659.08 338.18,1661.06"/>
    </edge>
    <edge id=":10740575586_0" function="internal">
        <lane id=":10740575586_0_0" index="0" disallow="tram rail_urban rail rail_electric rail_fast ship container cable_car subway aircraft wheelchair scooter drone" speed="3.24" length="3.20" shape="819.18,1848.54 818.62,1851.70"/>
    </edge>
    <edge id=":10740575586_1" function="internal">
        <lane id=":10740575586_1_0" index="0" disallow="tram rail_urban rail rail_electric rail_fast ship container cable_car subway aircraft wheelchair scooter drone" speed="3.24" length="3.20" shape="819.18,1848.54 818.62,1851.70"/>
    </edge>
    <edge id=":10740575588_0" function="internal">
        <lane id=":10740575588_0_0" index="0" disallow="tram rail_urban rail rail_electric rail_fast ship container cable_car subway aircraft wheelchair scooter drone" speed="3.24" length="3.20" shape="771.55,1798.16 769.29,1800.42"/>
    </edge>
    <edge id=":10740575588_1" function="internal">
        <lane id=":10740575588_1_0" index="0" disallow="tram rail_urban rail rail_electric rail_fast ship container cable_car subway aircraft wheelchair scooter drone" speed="3.24" length="3.20" shape="771.55,1798.16 769.29,1800.42"/>
    </edge>
    <edge id=":10740588106_0" function="internal">
        <lane id=":10740588106_0_0" index="0" disallow="tram rail_urban rail rail_electric rail_fast ship container cable_car subway aircraft wheelchair scooter drone" speed="3.24" length="3.20" shape="801.50,1723.47 799.12,1725.61"/>
    </edge>
    <edge id=":10740588106_1" function="internal">
        <lane id=":10740588106_1_0" index="0" disallow="tram rail_urban rail rail_electric rail_fast ship container cable_car subway aircraft wheelchair scooter drone" speed="3.24" length="3.20" shape="801.50,1723.47 799.12,1725.61"/>
    </edge>
    <edge id=":10740588146_0" function="internal">
        <lane id=":10740588146_0_0" index="0" disallow="tram rail_urban rail rail_electric rail_fast ship container cable_car subway aircraft wheelchair scooter drone" speed="3.24" length="3.20" shape="1057.68,2039.02 1058.34,2035.90"/>
    </edge>
    <edge id=":10740588146_1" function="internal">
        <lane id=":10740588146_1_0" index="0" disallow="tram rail_urban rail rail_electric rail_fast ship container cable_car subway aircraft wheelchair scooter drone" speed="3.24" length="3.20" shape="1057.68,2039.02 1058.34,2035.90"/>
    </edge>
    <edge id=":10740588150_0" function="internal">
        <lane id=":10740588150_0_0" index="0" disallow="tram rail_urban rail rail_electric rail_fast ship container cable_car subway aircraft wheelchair scooter drone" speed="3.24" length="3.20" shape="1123.48,2000.52 1126.54,2001.48"/>
    </edge>
    <edge id=":10740588150_1" function="internal">
        <lane id=":10740588150_1_0" index="0" disallow="tram rail_urban rail rail_electric rail_fast ship container cable_car subway aircraft wheelchair scooter drone" speed="3.24" length="3.20" shape="1123.48,2000.52 1126.54,2001.48"/>
    </edge>
    <edge id=":10742638488_0" function="internal">
        <lane id=":10742638488_0_0" index="0" disallow="tram rail_urban rail rail_electric rail_fast ship container cable_car subway aircraft wheelchair scooter drone" speed="3.24" length="3.20" shape="138.95,1380.42 141.69,1382.07"/>
    </edge>
    <edge id=":10742638488_1" function="internal">
        <lane id=":10742638488_1_0" index="0" disallow="tram rail_urban rail rail_electric rail_fast ship container cable_car subway aircraft wheelchair scooter drone" speed="3.24" length="3.20" shape="138.95,1380.42 141.69,1382.07"/>
    </edge>
    <edge id=":10743988379_0" function="internal">
        <lane id=":10743988379_0_0" index="0" disallow="tram rail_urban rail rail_electric rail_fast ship container cable_car subway aircraft wheelchair scooter drone" speed="3.24" length="3.20" shape="285.63,1369.79 288.21,1371.67"/>
    </edge>
    <edge id=":10743988379_1" function="internal">
        <lane id=":10743988379_1_0" index="0" disallow="tram rail_urban rail rail_electric rail_fast ship container cable_car subway aircraft wheelchair scooter drone" speed="3.24" length="3.20" shape="285.63,1369.79 288.21,1371.67"/>
    </edge>
    <edge id=":10743988385_0" function="internal">
        <lane id=":10743988385_0_0" index="0" disallow="tram rail_urban rail rail_electric rail_fast ship container cable_car subway aircraft wheelchair scooter drone" speed="3.24" length="3.20" shape="353.21,1427.41 355.67,1429.45"/>
    </edge>
    <edge id=":10743988385_1" function="internal">
        <lane id=":10743988385_1_0" index="0" disallow="tram rail_urban rail rail_electric rail_fast ship container cable_car subway aircraft wheelchair scooter drone" speed="3.24" length="3.20" shape="353.21,1427.41 355.67,1429.45"/>
    </edge>
    <edge id=":10744010514_0" function="internal">
        <lane id=":10744010514_0_0" index="0" disallow="tram rail_urban rail rail_electric rail_fast ship container cable_car subway aircraft wheelchair scooter drone" speed="3.24" length="3.20" shape="376.72,1196.50 375.58,1199.48"/>
    </edge>
    <edge id=":10744010514_1" function="internal">
        <lane id=":10744010514_1_0" index="0" disallow="tram rail_urban rail rail_electric rail_fast ship container cable_car subway aircraft wheelchair scooter drone" speed="3.24" length="3.20" shape="376.72,1196.50 375.58,1199.48"/>
    </edge>
    <edge id=":10744010566_0" function="internal">
        <lane id=":10744010566_0_0" index="0" disallow="tram rail_urban rail rail_electric rail_fast ship container cable_car subway aircraft wheelchair scooter drone" speed="3.24" length="3.20" shape="559.83,1279.53 560.83,1282.57"/>
    </edge>
    <edge id=":10744010566_1" function="internal">
        <lane id=":10744010566_1_0" index="0" disallow="tram rail_urban rail rail_electric rail_fast ship container cable_car subway aircraft wheelchair scooter drone" speed="3.24" length="3.20" shape="559.83,1279.53 560.83,1282.57"/>
    </edge>
    <edge id=":10744010570_0" function="internal">
        <lane id=":10744010570_0_0" index="0" disallow="tram rail_urban rail rail_electric rail_fast ship container cable_car subway aircraft wheelchair scooter drone" speed="4.08" length="4.80" shape="505.72,1105.93 511.92,1104.37"/>
        <lane id=":10744010570_0_1" index="1" disallow="tram rail_urban rail rail_electric rail_fast ship container cable_car subway aircraft wheelchair scooter drone" speed="3.24" length="4.80" shape="505.72,1105.93 508.82,1105.15"/>
    </edge>
    <edge id=":10744010570_2" function="internal">
        <lane id=":10744010570_2_0" index="0" disallow="tram rail_urban rail rail_electric rail_fast ship container cable_car subway aircraft wheelchair scooter drone" speed="4.08" length="6.40" shape="502.62,1106.71 508.82,1105.15"/>
    </edge>
    <edge id=":10744016878_0" function="internal">
        <lane id=":10744016878_0_0" index="0" disallow="tram rail_urban rail rail_electric rail_fast ship container cable_car subway aircraft wheelchair scooter drone" speed="3.24" length="3.20" shape="1427.74,2035.12 1430.66,2036.42"/>
    </edge>
    <edge id=":10744016878_1" function="internal">
        <lane id=":10744016878_1_0" index="0" disallow="tram rail_urban rail rail_electric rail_fast ship container cable_car subway aircraft wheelchair scooter drone" speed="3.24" length="3.20" shape="1427.74,2035.12 1430.66,2036.42"/>
    </edge>
    <edge id=":10744016888_0" function="internal">
        <lane id=":10744016888_0_0" index="0" disallow="tram rail_urban rail rail_electric rail_fast ship container cable_car subway aircraft wheelchair scooter drone" speed="3.24" length="3.20" shape="1159.56,2007.75 1159.32,2010.95"/>
    </edge>
    <edge id=":10744016888_1" function="internal">
        <lane id=":10744016888_1_0" index="0" disallow="tram rail_urban rail rail_electric rail_fast ship container cable_car subway aircraft wheelchair scooter drone" speed="3.24" length="3.20" shape="1159.56,2007.75 1159.32,2010.95"/>
    </edge>
    <edge id=":10744016890_0" function="internal">
        <lane id=":10744016890_0_0" index="0" disallow="tram rail_urban rail rail_electric rail_fast ship container cable_car subway aircraft wheelchair scooter drone" speed="3.24" length="3.20" shape="1344.33,1991.44 1347.25,1992.74"/>
    </edge>
    <edge id=":10744016890_1" function="internal">
        <lane id=":10744016890_1_0" index="0" disallow="tram rail_urban rail rail_electric rail_fast ship container cable_car subway aircraft wheelchair scooter drone" speed="3.24" length="3.20" shape="1344.33,1991.44 1347.25,1992.74"/>
    </edge>
    <edge id=":10744016891_0" function="internal">
        <lane id=":10744016891_0_0" index="0" disallow="tram rail_urban rail rail_electric rail_fast ship container cable_car subway aircraft wheelchair scooter drone" speed="3.24" length="3.20" shape="1230.72,2003.67 1233.86,2004.27"/>
    </edge>
    <edge id=":10744016891_1" function="internal">
        <lane id=":10744016891_1_0" index="0" disallow="tram rail_urban rail rail_electric rail_fast ship container cable_car subway aircraft wheelchair scooter drone" speed="3.24" length="3.20" shape="1230.72,2003.67 1233.86,2004.27"/>
    </edge>
    <edge id=":10747476600_0" function="internal">
        <lane id=":10747476600_0_0" index="0" disallow="tram rail_urban rail rail_electric rail_fast ship container cable_car subway aircraft wheelchair scooter drone" speed="3.24" length="3.20" shape="1010.38,1820.77 1013.52,1820.15"/>
    </edge>
    <edge id=":10747476600_1" function="internal">
        <lane id=":10747476600_1_0" index="0" disallow="tram rail_urban rail rail_electric rail_fast ship container cable_car subway aircraft wheelchair scooter drone" speed="3.24" length="3.20" shape="1010.38,1820.77 1013.52,1820.15"/>
    </edge>
    <edge id=":10747476705_0" function="internal">
        <lane id=":10747476705_0_0" index="0" disallow="tram rail_urban rail rail_electric rail_fast ship container cable_car subway aircraft wheelchair scooter drone" speed="3.24" length="3.20" shape="1126.02,1613.94 1123.76,1616.22"/>
    </edge>
    <edge id=":10747476705_1" function="internal">
        <lane id=":10747476705_1_0" index="0" disallow="tram rail_urban rail rail_electric rail_fast ship container cable_car subway aircraft wheelchair scooter drone" speed="3.24" length="3.20" shape="1126.02,1613.94 1123.76,1616.22"/>
    </edge>
    <edge id=":10747476714_0" function="internal">
        <lane id=":10747476714_0_0" index="0" disallow="tram rail_urban rail rail_electric rail_fast ship container cable_car subway aircraft wheelchair scooter drone" speed="3.24" length="3.20" shape="1101.16,1815.09 1104.28,1814.39"/>
    </edge>
    <edge id=":10747476714_1" function="internal">
        <lane id=":10747476714_1_0" index="0" disallow="tram rail_urban rail rail_electric rail_fast ship container cable_car subway aircraft wheelchair scooter drone" speed="3.24" length="3.20" shape="1101.16,1815.09 1104.28,1814.39"/>
    </edge>
    <edge id=":10747476729_0" function="internal">
        <lane id=":10747476729_0_0" index="0" disallow="tram rail_urban rail rail_electric rail_fast ship container cable_car subway aircraft wheelchair scooter drone" speed="3.24" length="3.20" shape="1193.61,1811.92 1196.69,1811.02"/>
    </edge>
    <edge id=":10747476729_1" function="internal">
        <lane id=":10747476729_1_0" index="0" disallow="tram rail_urban rail rail_electric rail_fast ship container cable_car subway aircraft wheelchair scooter drone" speed="3.24" length="3.20" shape="1193.61,1811.92 1196.69,1811.02"/>
    </edge>
    <edge id=":10747476738_0" function="internal">
        <lane id=":10747476738_0_0" index="0" disallow="tram rail_urban rail rail_electric rail_fast ship container cable_car subway aircraft wheelchair scooter drone" speed="3.24" length="3.20" shape="1258.80,1807.93 1262.00,1808.01"/>
    </edge>
    <edge id=":10747476738_1" function="internal">
        <lane id=":10747476738_1_0" index="0" disallow="tram rail_urban rail rail_electric rail_fast ship container cable_car subway aircraft wheelchair scooter drone" speed="3.24" length="3.20" shape="1258.80,1807.93 1262.00,1808.01"/>
    </edge>
    <edge id=":10747476749_0" function="internal">
        <lane id=":10747476749_0_0" index="0" disallow="tram rail_urban rail rail_electric rail_fast ship container cable_car subway aircraft wheelchair scooter drone" speed="3.24" length="3.20" shape="1334.02,1819.85 1332.82,1822.81"/>
    </edge>
    <edge id=":10747476749_1" function="internal">
        <lane id=":10747476749_1_0" index="0" disallow="tram rail_urban rail rail_electric rail_fast ship container cable_car subway aircraft wheelchair scooter drone" speed="3.24" length="3.20" shape="1334.02,1819.85 1332.82,1822.81"/>
    </edge>
    <edge id=":10747476750_0" function="internal">
        <lane id=":10747476750_0_0" index="0" disallow="tram rail_urban rail rail_electric rail_fast ship container cable_car subway aircraft wheelchair scooter drone" speed="3.24" length="3.20" shape="1327.27,1820.56 1328.47,1817.60"/>
    </edge>
    <edge id=":10747476750_1" function="internal">
        <lane id=":10747476750_1_0" index="0" disallow="tram rail_urban rail rail_electric rail_fast ship container cable_car subway aircraft wheelchair scooter drone" speed="3.24" length="3.20" shape="1327.27,1820.56 1328.47,1817.60"/>
    </edge>
    <edge id=":10747476787_0" function="internal">
        <lane id=":10747476787_0_0" index="0" disallow="tram rail_urban rail rail_electric rail_fast ship container cable_car subway aircraft wheelchair scooter drone" speed="3.24" length="3.20" shape="1368.43,1730.52 1367.29,1733.52"/>
    </edge>
    <edge id=":10747476787_1" function="internal">
        <lane id=":10747476787_1_0" index="0" disallow="tram rail_urban rail rail_electric rail_fast ship container cable_car subway aircraft wheelchair scooter drone" speed="3.24" length="3.20" shape="1368.43,1730.52 1367.29,1733.52"/>
    </edge>
    <edge id=":10747476789_0" function="internal">
        <lane id=":10747476789_0_0" index="0" disallow="tram rail_urban rail rail_electric rail_fast ship container cable_car subway aircraft wheelchair scooter drone" speed="4.77" length="6.40" shape="1378.80,1694.06 1370.04,1690.14"/>
        <lane id=":10747476789_0_1" index="1" disallow="tram rail_urban rail rail_electric rail_fast ship container cable_car subway aircraft wheelchair scooter drone" speed="3.24" length="6.40" shape="1375.88,1692.75 1372.96,1691.45"/>
    </edge>
    <edge id=":10747476789_2" function="internal">
        <lane id=":10747476789_2_0" index="0" disallow="tram rail_urban rail rail_electric rail_fast ship container cable_car subway aircraft wheelchair scooter drone" speed="4.77" length="6.40" shape="1378.80,1694.06 1370.04,1690.14"/>
        <lane id=":10747476789_2_1" index="1" disallow="tram rail_urban rail rail_electric rail_fast ship container cable_car subway aircraft wheelchair scooter drone" speed="3.24" length="6.40" shape="1375.88,1692.75 1372.96,1691.45"/>
    </edge>
    <edge id=":10747695378_0" function="internal">
        <lane id=":10747695378_0_0" index="0" disallow="tram rail_urban rail rail_electric rail_fast ship container cable_car subway aircraft wheelchair scooter drone" speed="4.08" length="4.80" shape="521.15,1170.30 527.38,1168.83"/>
        <lane id=":10747695378_0_1" index="1" disallow="tram rail_urban rail rail_electric rail_fast ship container cable_car subway aircraft wheelchair scooter drone" speed="3.24" length="4.80" shape="521.15,1170.30 524.27,1169.56"/>
    </edge>
    <edge id=":10747695378_2" function="internal">
        <lane id=":10747695378_2_0" index="0" disallow="tram rail_urban rail rail_electric rail_fast ship container cable_car subway aircraft wheelchair scooter drone" speed="4.08" length="6.40" shape="518.04,1171.03 524.27,1169.56"/>
    </edge>
    <edge id=":10749770733_0" function="internal">
        <lane id=":10749770733_0_0" index="0" disallow="tram rail_urban rail rail_electric rail_fast ship container cable_car subway aircraft wheelchair scooter drone" speed="3.24" length="3.20" shape="644.37,1355.02 646.87,1357.02"/>
    </edge>
    <edge id=":10749770733_1" function="internal">
        <lane id=":10749770733_1_0" index="0" disallow="tram rail_urban rail rail_electric rail_fast ship container cable_car subway aircraft wheelchair scooter drone" speed="3.24" length="3.20" shape="644.37,1355.02 646.87,1357.02"/>