<?xml version="1.0" encoding="UTF-8"?>

<!-- generated on 2026-06-20T18:54:16.463630+05:30 by Eclipse SUMO netconvert 1.26.0
<netconvertConfiguration xmlns:xsi="http://www.w3.org/2001/XMLSchema-instance" xsi:noNamespaceSchemaLocation="http://sumo.dlr.de/xsd/netconvertConfiguration.xsd">

    <input>
        <osm-files value="C:\Users\Asus\OneDrive\Desktop\projects\urban congestion\data\networks\piedmont.osm"/>
    </input>

    <output>
        <output-file value="C:\Users\Asus\OneDrive\Desktop\projects\urban congestion\data\networks\piedmont.net.xml"/>
    </output>

    <projection>
        <proj.utm value="true"/>
    </projection>

    <processing>
        <geometry.remove value="true"/>
        <roundabouts.guess value="true"/>
    </processing>

    <tls_building>
        <tls.discard-simple value="true"/>
        <tls.join value="true"/>
        <tls.guess-signals value="true"/>
        <tls.default-type value="actuated"/>
    </tls_building>

    <ramp_guessing>
        <ramps.guess value="true"/>
    </ramp_guessing>

    <junctions>
        <junctions.join value="true"/>
    </junctions>

</netconvertConfiguration>
-->

<net version="1.20" junctionCornerDetail="5" limitTurnSpeed="5.50" xmlns:xsi="http://www.w3.org/2001/XMLSchema-instance" xsi:noNamespaceSchemaLocation="http://sumo.dlr.de/xsd/net_file.xsd">

    <location netOffset="-566181.07,-4185136.79" convBoundary="0.00,0.00,2269.14,2634.31" origBoundary="-122.249915,37.808578,-122.222179,37.834823" projParameter="+proj=utm +zone=10 +ellps=WGS84 +datum=WGS84 +units=m +no_defs"/>

    <type id="highway.footway" priority="1" numLanes="1" speed="2.78" allow="pedestrian" oneway="1" width="2.00"/>
    <type id="highway.path" priority="1" numLanes="1" speed="5.56" allow="pedestrian bicycle" oneway="0" width="2.00"/>
    <type id="highway.residential" priority="3" numLanes="1" speed="13.89" disallow="tram rail_urban rail rail_electric rail_fast ship container cable_car subway aircraft wheelchair scooter drone" oneway="0"/>
    <type id="highway.secondary" priority="11" numLanes="1" speed="27.78" disallow="tram rail_urban rail rail_electric rail_fast ship container cable_car subway aircraft wheelchair scooter drone" oneway="0"/>
    <type id="highway.service" priority="1" numLanes="1" speed="5.56" allow="pedestrian delivery bicycle" oneway="0"/>
    <type id="highway.steps" priority="1" numLanes="1" speed="1.39" allow="pedestrian" oneway="1" width="2.00"/>
    <type id="highway.tertiary" priority="10" numLanes="1" speed="22.22" disallow="tram rail_urban rail rail_electric rail_fast ship container cable_car subway aircraft wheelchair scooter drone" oneway="0"/>
    <type id="highway.tertiary_link" priority="5" numLanes="1" speed="22.22" disallow="tram rail_urban rail rail_electric rail_fast ship container cable_car subway aircraft wheelchair scooter drone" oneway="0"/>
    <type id="highway.track" priority="1" numLanes="1" speed="5.56" allow="pedestrian motorcycle moped bicycle" oneway="0"/>
    <type id="highway.unclassified" priority="4" numLanes="1" speed="13.89" disallow="tram rail_urban rail rail_electric rail_fast ship container cable_car subway aircraft wheelchair scooter drone" oneway="0"/>

    <edge id=":10241424090_0" function="internal">
        <lane id=":10241424090_0_0" index="0" disallow="tram rail_urban rail rail_electric rail_fast ship container cable_car subway aircraft wheelchair scooter drone" speed="13.89" length="3.51" shape="365.94,2117.47 366.78,2116.96 367.56,2116.96 368.34,2116.95 369.19,2116.46"/>
    </edge>
    <edge id=":10241424090_1" function="internal">
        <lane id=":10241424090_1_0" index="0" disallow="tram rail_urban rail rail_electric rail_fast ship container cable_car subway aircraft wheelchair scooter drone" speed="3.65" length="4.67" shape="365.94,2117.47 367.35,2117.16 368.21,2117.43 368.50,2118.27 368.24,2119.69"/>
    </edge>
    <edge id=":10684138238_0" function="internal">
        <lane id=":10684138238_0_0" index="0" allow="pedestrian delivery bicycle" speed="3.65" length="4.67" shape="1124.63,1388.30 1123.86,1387.08 1123.82,1386.19 1124.51,1385.62 1125.93,1385.38"/>
    </edge>
    <edge id=":10684138239_0" function="internal">
        <lane id=":10684138239_0_0" index="0" disallow="tram rail_urban rail rail_electric rail_fast ship container cable_car subway aircraft wheelchair scooter drone" speed="13.89" length="9.42" shape="1163.76,1398.75 1160.06,1407.41"/>
    </edge>
    <edge id=":10684138239_1" function="internal">
        <lane id=":10684138239_1_0" index="0" allow="pedestrian delivery bicycle" speed="6.85" length="3.29" shape="1163.76,1398.75 1162.31,1401.16 1161.92,1401.43"/>
    </edge>
    <edge id=":10684138239_7" function="internal">
        <lane id=":10684138239_7_0" index="0" allow="pedestrian delivery bicycle" speed="6.85" length="6.96" shape="1161.92,1401.43 1160.43,1402.51 1158.14,1402.80 1155.43,1402.03"/>
    </edge>
    <edge id=":10684138239_2" function="internal">
        <lane id=":10684138239_2_0" index="0" allow="pedestrian delivery bicycle" speed="5.02" length="5.02" shape="1156.74,1399.10 1158.06,1399.48 1159.19,1399.34 1160.10,1398.68 1160.82,1397.50"/>
    </edge>
    <edge id=":10684138239_3" function="internal">
        <lane id=":10684138239_3_0" index="0" allow="pedestrian delivery bicycle" speed="6.90" length="10.17" shape="1156.74,1399.10 1159.11,1400.59 1160.46,1402.47 1160.78,1404.74 1160.06,1407.41"/>
    </edge>
    <edge id=":10684138239_4" function="internal">
        <lane id=":10684138239_4_0" index="0" allow="pedestrian delivery bicycle" speed="3.65" length="4.67" shape="1156.74,1399.10 1157.51,1400.32 1157.55,1401.22 1156.86,1401.78 1155.43,1402.03"/>
    </edge>
    <edge id=":10684138239_5" function="internal">
        <lane id=":10684138239_5_0" index="0" allow="pedestrian delivery bicycle" speed="5.09" length="5.06" shape="1157.12,1406.15 1157.47,1404.83 1157.31,1403.70 1156.63,1402.77 1155.43,1402.03"/>
    </edge>
    <edge id=":10684138239_6" function="internal">
        <lane id=":10684138239_6_0" index="0" disallow="tram rail_urban rail rail_electric rail_fast ship container cable_car subway aircraft wheelchair scooter drone" speed="13.89" length="9.41" shape="1157.12,1406.15 1160.82,1397.50"/>
    </edge>
    <edge id=":10684138240_0" function="internal">
        <lane id=":10684138240_0_0" index="0" allow="pedestrian delivery bicycle" speed="5.56" length="5.83" shape="1134.20,1417.23 1132.76,1417.39 1131.53,1417.95 1130.50,1418.92 1129.66,1420.30"/>
    </edge>
    <edge id=":10684138240_1" function="internal">
        <lane id=":10684138240_1_0" index="0" allow="pedestrian delivery bicycle" speed="5.56" length="8.71" shape="1134.20,1417.23 1131.66,1417.03 1129.96,1416.54 1128.42,1415.59 1126.35,1414.04"/>
    </edge>
    <edge id=":10684138240_2" function="internal">
        <lane id=":10684138240_2_0" index="0" allow="pedestrian delivery bicycle" speed="3.65" length="4.67" shape="1134.20,1417.23 1133.02,1416.39 1132.64,1415.58 1133.06,1414.79 1134.28,1414.03"/>
    </edge>
    <edge id=":10684138240_3" function="internal">
        <lane id=":10684138240_3_0" index="0" allow="pedestrian delivery bicycle" speed="5.56" length="6.74" shape="1128.25,1411.47 1129.84,1412.68 1131.03,1413.45 1132.33,1413.86 1134.28,1414.03"/>
    </edge>
    <edge id=":10684138240_4" function="internal">
        <lane id=":10684138240_4_0" index="0" allow="pedestrian delivery bicycle" speed="5.56" length="9.78" shape="1128.25,1411.47 1129.88,1413.16 1130.66,1415.20 1130.58,1417.58 1129.66,1420.30"/>
    </edge>
    <edge id=":10684138240_5" function="internal">
        <lane id=":10684138240_5_0" index="0" allow="pedestrian delivery bicycle" speed="3.65" length="4.67" shape="1128.25,1411.47 1128.74,1412.83 1128.59,1413.71 1127.79,1414.11 1126.35,1414.04"/>
    </edge>
    <edge id=":10684138240_6" function="internal">
        <lane id=":10684138240_6_0" index="0" allow="pedestrian delivery bicycle" speed="5.31" length="4.81" shape="1127.02,1418.38 1127.48,1417.04 1127.52,1415.87 1127.14,1414.87 1126.35,1414.04"/>
    </edge>
    <edge id=":10684138240_7" function="internal">
        <lane id=":10684138240_7_0" index="0" allow="pedestrian delivery bicycle" speed="5.56" length="9.01" shape="1127.02,1418.38 1128.26,1416.42 1129.89,1415.05 1131.89,1414.25 1134.28,1414.03"/>
    </edge>
    <edge id=":10684138240_8" function="internal">
        <lane id=":10684138240_8_0" index="0" allow="pedestrian delivery bicycle" speed="3.67" length="4.76" shape="1127.02,1418.38 1128.40,1417.87 1129.30,1418.02 1129.72,1418.83 1129.66,1420.30"/>
    </edge>
    <edge id=":10734084926_0" function="internal">
        <lane id=":10734084926_0_0" index="0" disallow="tram rail_urban rail rail_electric rail_fast ship container cable_car subway aircraft wheelchair scooter drone" speed="13.89" length="5.08" shape="305.70,1921.96 300.92,1920.23"/>
    </edge>
    <edge id=":10734085029_0" function="internal">
        <lane id=":10734085029_0_0" index="0" allow="pedestrian delivery bicycle" speed="3.65" length="4.67" shape="346.19,1910.90 347.25,1911.88 347.52,1912.73 347.00,1913.46 345.69,1914.06"/>
    </edge>
    <edge id=":10734085030_0" function="internal">
        <lane id=":10734085030_0_0" index="0" allow="pedestrian delivery bicycle" speed="5.56" length="7.09" shape="342.81,1913.60 340.74,1913.27 339.32,1912.96 337.99,1912.40 336.17,1911.37"/>
    </edge>
    <edge id=":10734085030_1" function="internal">
        <lane id=":10734085030_1_0" index="0" allow="pedestrian delivery bicycle" speed="3.65" length="1.44" shape="342.81,1913.60 341.76,1912.62"/>
    </edge>
    <edge id=":10734085030_4" function="internal">
        <lane id=":10734085030_4_0" index="0" allow="pedestrian delivery bicycle" speed="3.65" length="3.23" shape="341.76,1912.62 341.49,1911.77 342.01,1911.04 343.32,1910.44"/>
    </edge>
    <edge id=":10734085030_2" function="internal">
        <lane id=":10734085030_2_0" index="0" allow="pedestrian delivery bicycle" speed="5.56" length="5.86" shape="337.82,1908.63 339.32,1909.48 340.43,1909.92 341.60,1910.18 343.32,1910.44"/>
    </edge>
    <edge id=":10734085030_3" function="internal">
        <lane id=":10734085030_3_0" index="0" allow="pedestrian delivery bicycle" speed="3.65" length="1.44" shape="337.82,1908.63 338.43,1909.93"/>
    </edge>
    <edge id=":10734085030_5" function="internal">
        <lane id=":10734085030_5_0" index="0" allow="pedestrian delivery bicycle" speed="3.65" length="3.23" shape="338.43,1909.93 338.36,1910.82 337.61,1911.30 336.17,1911.37"/>
    </edge>
    <edge id=":10735471352_0" function="internal">
        <lane id=":10735471352_0_0" index="0" allow="pedestrian delivery bicycle" speed="3.65" length="4.67" shape="598.88,1671.12 599.46,1672.44 599.37,1673.33 598.60,1673.79 597.16,1673.82"/>
    </edge>
    <edge id=":10740588165_0" function="internal">
        <lane id=":10740588165_0_0" index="0" allow="pedestrian bicycle" speed="2.89" length="2.92" width="2.00" shape="753.50,2088.85 753.57,2089.75 753.33,2090.25 752.79,2090.37 751.93,2090.09"/>
    </edge>
    <edge id=":10740588168_0" function="internal">
        <lane id=":10740588168_0_0" index="0" allow="pedestrian bicycle" speed="2.89" length="2.92" width="2.00" shape="733.21,2068.29 732.64,2067.59 732.55,2067.04 732.94,2066.63 733.80,2066.38"/>
    </edge>
    <edge id=":10740588169_0" function="internal">
        <lane id=":10740588169_0_0" index="0" allow="pedestrian bicycle" speed="2.89" length="2.92" width="2.00" shape="734.08,2066.46 734.65,2067.16 734.74,2067.71 734.36,2068.12 733.49,2068.37"/>
    </edge>
    <edge id=":10740588172_0" function="internal">
        <lane id=":10740588172_0_0" index="0" allow="pedestrian bicycle" speed="2.89" length="2.92" width="2.00" shape="751.80,2089.94 751.73,2089.04 751.97,2088.53 752.52,2088.42 753.37,2088.69"/>
    </edge>
    <edge id=":10743702181_0" function="internal">
        <lane id=":10743702181_0_0" index="0" allow="pedestrian delivery bicycle" speed="5.56" length="5.14" shape="401.60,1237.25 396.64,1238.59"/>
    </edge>
    <edge id=":10743702181_1" function="internal">
        <lane id=":10743702181_1_0" index="0" allow="pedestrian delivery bicycle" speed="3.65" length="1.44" shape="401.60,1237.25 400.24,1236.79"/>
    </edge>
    <edge id=":10743702181_4" function="internal">
        <lane id=":10743702181_4_0" index="0" allow="pedestrian delivery bicycle" speed="3.65" length="3.23" shape="400.24,1236.79 399.64,1236.13 399.82,1235.25 400.77,1234.16"/>
    </edge>
    <edge id=":10743702181_2" function="internal">
        <lane id=":10743702181_2_0" index="0" allow="pedestrian delivery bicycle" speed="5.56" length="5.14" shape="395.81,1235.50 400.77,1234.16"/>
    </edge>
    <edge id=":10743702181_3" function="internal">
        <lane id=":10743702181_3_0" index="0" allow="pedestrian delivery bicycle" speed="3.65" length="1.44" shape="395.81,1235.50 397.17,1235.96"/>
    </edge>
    <edge id=":10743702181_5" function="internal">
        <lane id=":10743702181_5_0" index="0" allow="pedestrian delivery bicycle" speed="3.65" length="3.23" shape="397.17,1235.96 397.77,1236.63 397.59,1237.51 396.64,1238.59"/>
    </edge>
    <edge id=":10743707768_0" function="internal">
        <lane id=":10743707768_0_0" index="0" disallow="tram rail_urban rail rail_electric rail_fast ship container cable_car subway aircraft wheelchair scooter drone" speed="8.94" length="8.39" shape="286.27,823.91 285.22,821.63 283.80,820.39 282.37,819.15 281.30,816.88"/>
        <lane id=":10743707768_0_1" index="1" disallow="tram rail_urban rail rail_electric rail_fast ship container cable_car subway aircraft wheelchair scooter drone" speed="8.94" length="8.39" shape="286.27,823.91 284.42,816.14"/>
    </edge>
    <edge id=":10743707768_2" function="internal">
        <lane id=":10743707768_2_0" index="0" disallow="tram rail_urban rail rail_electric rail_fast ship container cable_car subway aircraft wheelchair scooter drone" speed="8.94" length="8.54" shape="290.64,814.65 291.71,816.93 293.14,818.17 294.56,819.42 295.62,821.70"/>
        <lane id=":10743707768_2_1" index="1" disallow="tram rail_urban rail rail_electric rail_fast ship container cable_car subway aircraft wheelchair scooter drone" speed="8.94" length="8.54" shape="287.53,815.39 288.60,817.67 290.03,818.91 291.45,820.16 292.50,822.44"/>
        <lane id=":10743707768_2_2" index="2" disallow="tram rail_urban rail rail_electric rail_fast ship container cable_car subway aircraft wheelchair scooter drone" speed="8.94" length="8.54" shape="287.53,815.39 289.39,823.17"/>
    </edge>
    <edge id=":10744010560_0" function="internal">
        <lane id=":10744010560_0_0" index="0" allow="pedestrian delivery bicycle" speed="5.56" length="4.70" shape="401.55,1327.84 396.97,1328.89"/>
    </edge>
    <edge id=":10744010560_1" function="internal">
        <lane id=":10744010560_1_0" index="0" allow="pedestrian delivery bicycle" speed="3.65" length="1.44" shape="401.55,1327.84 400.20,1327.32"/>
    </edge>
    <edge id=":10744010560_4" function="internal">
        <lane id=":10744010560_4_0" index="0" allow="pedestrian delivery bicycle" speed="3.65" length="3.23" shape="400.20,1327.32 399.63,1326.63 399.85,1325.76 400.84,1324.72"/>
    </edge>
    <edge id=":10744010560_2" function="internal">
        <lane id=":10744010560_2_0" index="0" allow="pedestrian delivery bicycle" speed="5.56" length="4.70" shape="396.25,1325.77 400.84,1324.72"/>
    </edge>
    <edge id=":10744010560_3" function="internal">
        <lane id=":10744010560_3_0" index="0" allow="pedestrian delivery bicycle" speed="3.65" length="1.44" shape="396.25,1325.77 397.60,1326.28"/>
    </edge>
    <edge id=":10744010560_5" function="internal">
        <lane id=":10744010560_5_0" index="0" allow="pedestrian delivery bicycle" speed="3.65" length="3.23" shape="397.60,1326.28 398.17,1326.97 397.96,1327.84 396.97,1328.89"/>
    </edge>
    <edge id=":10744010570_0" function="internal">
        <lane id=":10744010570_0_0" index="0" disallow="tram rail_urban rail rail_electric rail_fast ship container cable_car subway aircraft wheelchair scooter drone" speed="11.18" length="8.14" shape="389.87,1251.57 388.80,1249.39 387.37,1248.23 385.94,1247.07 384.86,1244.89"/>
        <lane id=":10744010570_0_1" index="1" disallow="tram rail_urban rail rail_electric rail_fast ship container cable_car subway aircraft wheelchair scooter drone" speed="11.18" length="8.14" shape="389.87,1251.57 387.95,1244.09"/>
    </edge>
    <edge id=":10744010570_2" function="internal">
        <lane id=":10744010570_2_0" index="0" disallow="tram rail_urban rail rail_electric rail_fast ship container cable_car subway aircraft wheelchair scooter drone" speed="11.18" length="8.17" shape="391.05,1243.28 392.14,1245.48 393.57,1246.64 395.00,1247.81 396.07,1250.01"/>
        <lane id=":10744010570_2_1" index="1" disallow="tram rail_urban rail rail_electric rail_fast ship container cable_car subway aircraft wheelchair scooter drone" speed="11.18" length="8.17" shape="391.05,1243.28 392.97,1250.79"/>
    </edge>
    <edge id=":10744016870_0" function="internal">
        <lane id=":10744016870_0_0" index="0" allow="pedestrian bicycle" speed="2.89" length="2.92" width="2.00" shape="1221.72,2142.95 1222.30,2142.26 1222.82,2142.06 1223.29,2142.36 1223.71,2143.16"/>
    </edge>
    <edge id=":10744016871_0" function="internal">
        <lane id=":10744016871_0_0" index="0" allow="pedestrian bicycle" speed="2.89" length="2.92" width="2.00" shape="1223.52,2144.88 1222.95,2145.57 1222.42,2145.76 1221.95,2145.46 1221.54,2144.66"/>
    </edge>
    <edge id=":10744016881_0" function="internal">
        <lane id=":10744016881_0_0" index="0" allow="pedestrian delivery bicycle" speed="5.56" length="5.34" shape="1026.99,2161.43 1026.33,2156.12"/>
    </edge>
    <edge id=":10744016881_1" function="internal">
        <lane id=":10744016881_1_0" index="0" allow="pedestrian delivery bicycle" speed="3.65" length="1.44" shape="1026.99,2161.43 1027.64,2160.14"/>
    </edge>
    <edge id=":10744016881_4" function="internal">
        <lane id=":10744016881_4_0" index="0" allow="pedestrian delivery bicycle" speed="3.65" length="3.23" shape="1027.64,2160.14 1028.38,2159.64 1029.23,2159.94 1030.17,2161.03"/>
    </edge>
    <edge id=":10744016881_2" function="internal">
        <lane id=":10744016881_2_0" index="0" allow="pedestrian delivery bicycle" speed="5.56" length="5.34" shape="1029.51,2155.73 1030.17,2161.03"/>
    </edge>
    <edge id=":10744016881_3" function="internal">
        <lane id=":10744016881_3_0" index="0" allow="pedestrian delivery bicycle" speed="3.65" length="1.44" shape="1029.51,2155.73 1028.86,2157.02"/>
    </edge>
    <edge id=":10744016881_5" function="internal">
        <lane id=":10744016881_5_0" index="0" allow="pedestrian delivery bicycle" speed="3.65" length="3.23" shape="1028.86,2157.02 1028.12,2157.52 1027.27,2157.22 1026.33,2156.12"/>
    </edge>
    <edge id=":10749796937_0" function="internal">
        <lane id=":10749796937_0_0" index="0" disallow="tram rail_urban rail rail_electric rail_fast ship container cable_car subway aircraft wheelchair scooter drone" speed="13.89" length="5.74" shape="694.92,1383.16 694.48,1384.81 694.16,1385.93 693.79,1387.03 693.21,1388.64"/>
    </edge>
    <edge id=":10749796937_1" function="internal">
        <lane id=":10749796937_1_0" index="0" disallow="tram rail_urban rail rail_electric rail_fast ship container cable_car subway aircraft wheelchair scooter drone" speed="13.89" length="5.42" shape="690.22,1387.50 690.77,1385.99 691.11,1384.94 691.42,1383.89 691.83,1382.33"/>
    </edge>
    <edge id=":10749796962_0" function="internal">
        <lane id=":10749796962_0_0" index="0" disallow="tram rail_urban rail rail_electric rail_fast ship container cable_car subway aircraft wheelchair scooter drone" speed="11.18" length="6.36" shape="725.64,1413.44 719.84,1410.83"/>
    </edge>
    <edge id=":10749796962_1" function="internal">
        <lane id=":10749796962_1_0" index="0" disallow="tram rail_urban rail rail_electric rail_fast ship container cable_car subway aircraft wheelchair scooter drone" speed="11.18" length="6.40" shape="721.13,1407.90 726.97,1410.53"/>
    </edge>
    <edge id=":10767482061_0" function="internal">
        <lane id=":10767482061_0_0" index="0" disallow="tram rail_urban rail rail_electric rail_fast ship container cable_car subway aircraft wheelchair scooter drone" speed="13.89" length="5.74" shape="666.43,1658.59 663.91,1663.75"/>
    </edge>
    <edge id=":10767482061_1" function="internal">
        <lane id=":10767482061_1_0" index="0" disallow="tram rail_urban rail rail_electric rail_fast ship container cable_car subway aircraft wheelchair scooter drone" speed="13.89" length="5.69" shape="661.04,1662.34 663.54,1657.23"/>
    </edge>
    <edge id=":10768023071_0" function="internal">
        <lane id=":10768023071_0_0" index="0" allow="pedestrian delivery bicycle" speed="5.56" length="5.05" shape="324.81,902.47 319.90,903.64"/>
    </edge>
    <edge id=":10768023071_1" function="internal">
        <lane id=":10768023071_1_0" index="0" allow="pedestrian delivery bicycle" speed="3.65" length="1.44" shape="324.81,902.47 323.46,901.97"/>
    </edge>
    <edge id=":10768023071_4" function="internal">
        <lane id=":10768023071_4_0" index="0" allow="pedestrian delivery bicycle" speed="3.65" length="3.23" shape="323.46,901.97 322.89,901.29 323.09,900.42 324.07,899.36"/>
    </edge>
    <edge id=":10768023071_2" function="internal">
        <lane id=":10768023071_2_0" index="0" allow="pedestrian delivery bicycle" speed="5.56" length="5.04" shape="319.16,900.52 324.07,899.36"/>
    </edge>
    <edge id=":10768023071_3" function="internal">
        <lane id=":10768023071_3_0" index="0" allow="pedestrian delivery bicycle" speed="3.65" length="1.44" shape="319.16,900.52 320.51,901.03"/>
    </edge>
    <edge id=":10768023071_5" function="internal">
        <lane id=":10768023071_5_0" index="0" allow="pedestrian delivery bicycle" speed="3.65" length="3.23" shape="320.51,901.03 321.09,901.71 320.88,902.58 319.90,903.64"/>
    </edge>
    <edge id=":10768023084_0" function="internal">
        <lane id=":10768023084_0_0" index="0" allow="pedestrian delivery bicycle" speed="5.56" length="5.07" shape="348.43,1021.48 343.50,1022.64"/>
    </edge>
    <edge id=":10768023084_1" function="internal">
        <lane id=":10768023084_1_0" index="0" allow="pedestrian delivery bicycle" speed="3.65" length="1.44" shape="348.43,1021.48 347.08,1020.97"/>
    </edge>
    <edge id=":10768023084_4" function="internal">
        <lane id=":10768023084_4_0" index="0" allow="pedestrian delivery bicycle" speed="3.65" length="3.23" shape="347.08,1020.97 346.51,1020.29 346.72,1019.42 347.70,1018.36"/>
    </edge>
    <edge id=":10768023084_2" function="internal">
        <lane id=":10768023084_2_0" index="0" allow="pedestrian delivery bicycle" speed="5.56" length="5.07" shape="342.76,1019.52 347.70,1018.36"/>
    </edge>
    <edge id=":10768023084_3" function="internal">
        <lane id=":10768023084_3_0" index="0" allow="pedestrian delivery bicycle" speed="3.65" length="1.44" shape="342.76,1019.52 344.12,1020.03"/>
    </edge>
    <edge id=":10768023084_5" function="internal">
        <lane id=":10768023084_5_0" index="0" allow="pedestrian delivery bicycle" speed="3.65" length="3.23" shape="344.12,1020.03 344.69,1020.71 344.48,1021.58 343.50,1022.64"/>
    </edge>
    <edge id=":10768023085_0" function="internal">
        <lane id=":10768023085_0_0" index="0" allow="pedestrian delivery bicycle" speed="5.56" length="5.00" shape="298.17,916.68 293.31,917.90"/>
    </edge>
    <edge id=":10768023086_0" function="internal">
        <lane id=":10768023086_0_0" index="0" allow="pedestrian delivery bicycle" speed="5.56" length="5.00" shape="289.57,902.94 294.43,901.73"/>
    </edge>
    <edge id=":10768023087_0" function="internal">
        <lane id=":10768023087_0_0" index="0" allow="pedestrian delivery bicycle" speed="5.56" length="5.06" shape="284.80,862.99 283.33,863.31 282.31,863.48 281.32,863.76 279.97,864.38"/>
    </edge>
    <edge id=":10768023087_1" function="internal">
        <lane id=":10768023087_1_0" index="0" allow="pedestrian delivery bicycle" speed="3.65" length="1.44" shape="284.80,862.99 283.44,862.51"/>
    </edge>
    <edge id=":10768023087_4" function="internal">
        <lane id=":10768023087_4_0" index="0" allow="pedestrian delivery bicycle" speed="3.65" length="3.23" shape="283.44,862.51 282.85,861.84 283.04,860.97 284.00,859.89"/>
    </edge>
    <edge id=":10768023087_2" function="internal">
        <lane id=":10768023087_2_0" index="0" allow="pedestrian delivery bicycle" speed="5.56" length="5.06" shape="279.15,861.20 280.50,860.59 281.50,860.34 282.53,860.19 284.00,859.89"/>
    </edge>
    <edge id=":10768023087_3" function="internal">
        <lane id=":10768023087_3_0" index="0" allow="pedestrian delivery bicycle" speed="3.68" length="1.37" shape="279.15,861.20 280.44,861.65"/>
    </edge>
    <edge id=":10768023087_5" function="internal">
        <lane id=":10768023087_5_0" index="0" allow="pedestrian delivery bicycle" speed="3.68" length="3.43" shape="280.44,861.65 280.55,861.69 281.15,862.38 280.96,863.28 279.97,864.38"/>
    </edge>
    <edge id=":10789216642_0" function="internal">
        <lane id=":10789216642_0_0" index="0" allow="pedestrian bicycle" speed="2.89" length="2.92" width="2.00" shape="1385.83,2218.45 1385.67,2217.56 1385.85,2217.04 1386.38,2216.87 1387.27,2217.06"/>
    </edge>
    <edge id=":10789216643_0" function="internal">
        <lane id=":10789216643_0_0" index="0" allow="pedestrian bicycle" speed="2.89" length="2.92" width="2.00" shape="1394.89,2221.70 1395.39,2222.45 1395.44,2223.01 1395.02,2223.38 1394.14,2223.56"/>
    </edge>
    <edge id=":10789216644_0" function="internal">
        <lane id=":10789216644_0_0" index="0" disallow="tram rail_urban rail rail_electric rail_fast ship container cable_car subway aircraft wheelchair scooter drone" speed="13.89" length="4.96" shape="1406.03,2221.53 1405.14,2220.35 1404.61,2219.49 1404.22,2218.56 1403.75,2217.16"/>
    </edge>
    <edge id=":10789216644_1" function="internal">
        <lane id=":10789216644_1_0" index="0" disallow="tram rail_urban rail rail_electric rail_fast ship container cable_car subway aircraft wheelchair scooter drone" speed="13.89" length="3.88" shape="1406.78,2216.14 1407.15,2217.23 1407.45,2217.97 1407.86,2218.64 1408.55,2219.56"/>
    </edge>
    <edge id=":10830942476_0" function="internal">
        <lane id=":10830942476_0_0" index="0" disallow="tram rail_urban rail rail_electric rail_fast ship container cable_car subway aircraft wheelchair scooter drone" speed="22.22" length="5.10" shape="2011.48,886.65 2011.44,891.75"/>
    </edge>
    <edge id=":10830942476_1" function="internal">
        <lane id=":10830942476_1_0" index="0" disallow="tram rail_urban rail rail_electric rail_fast ship container cable_car subway aircraft wheelchair scooter drone" speed="22.22" length="5.07" shape="2008.24,891.71 2008.28,886.63"/>
    </edge>
    <edge id=":10879933465_0" function="internal">
        <lane id=":10879933465_0_0" index="0" allow="pedestrian delivery bicycle" speed="3.65" length="4.67" shape="941.95,800.71 943.32,801.16 943.92,801.82 943.75,802.70 942.81,803.79"/>
    </edge>
    <edge id=":10880095773_0" function="internal">
        <lane id=":10880095773_0_0" index="0" disallow="tram rail_urban rail rail_electric rail_fast ship container cable_car subway aircraft wheelchair scooter drone" speed="8.49" length="5.88" shape="752.92,869.18 751.18,869.35 749.95,869.58 748.90,870.15 747.70,871.34"/>
    </edge>
    <edge id=":10880095773_1" function="internal">
        <lane id=":10880095773_1_0" index="0" disallow="tram rail_urban rail rail_electric rail_fast ship container cable_car subway aircraft wheelchair scooter drone" speed="15.05" length="7.18" shape="745.95,868.53 747.75,867.41 749.06,866.72 750.46,866.30 752.55,866.00"/>
    </edge>
    <edge id=":10880095776_0" function="internal">
        <lane id=":10880095776_0_0" index="0" allow="pedestrian delivery bicycle" speed="5.56" length="5.09" shape="768.54,862.24 765.16,866.04"/>
    </edge>
    <edge id=":10880095776_1" function="internal">
        <lane id=":10880095776_1_0" index="0" allow="pedestrian delivery bicycle" speed="3.65" length="1.44" shape="768.54,862.24 767.14,862.61"/>
    </edge>
    <edge id=":10880095776_4" function="internal">
        <lane id=":10880095776_4_0" index="0" allow="pedestrian delivery bicycle" speed="3.65" length="3.23" shape="767.14,862.61 766.28,862.37 765.95,861.54 766.15,860.11"/>
    </edge>
    <edge id=":10880095776_2" function="internal">
        <lane id=":10880095776_2_0" index="0" allow="pedestrian delivery bicycle" speed="5.56" length="5.09" shape="762.77,863.92 766.15,860.11"/>
    </edge>
    <edge id=":10880095776_3" function="internal">
        <lane id=":10880095776_3_0" index="0" allow="pedestrian delivery bicycle" speed="3.65" length="1.44" shape="762.77,863.92 764.16,863.55"/>
    </edge>
    <edge id=":10880095776_5" function="internal">
        <lane id=":10880095776_5_0" index="0" allow="pedestrian delivery bicycle" speed="3.65" length="3.23" shape="764.16,863.55 765.03,863.78 765.36,864.61 765.16,866.04"/>
    </edge>
    <edge id=":10880112513_0" function="internal">
        <lane id=":10880112513_0_0" index="0" disallow="tram rail_urban rail rail_electric rail_fast ship container cable_car subway aircraft wheelchair scooter drone" speed="6.71" length="5.07" shape="920.36,851.41 920.32,849.90 920.34,848.85 920.21,847.83 919.74,846.43"/>
    </edge>
    <edge id=":10880112513_1" function="internal">