<?xml version='1.0' encoding='utf-8'?>
<routes>
    <vType id="car" accel="2.6" decel="4.5" sigma="0.5" length="5.0" maxSpeed="13.89" />
    <flow id="north_south" type="car" begin="0" end="3600" probability="0.2" from="north_in" to="south_out" departLane="best" departSpeed="max" />
    <flow id="south_north" type="car" begin="0" end="3600" probability="0.2" from="south_in" to="north_out" departLane="best" departSpeed="max" />
    <flow id="east_west" type="car" begin="0" end="3600" probability="0.12" from="east_in" to="west_out" departLane="best" departSpeed="max" />
    <flow id="west_east" type="car" begin="0" end="3600" probability="0.12" from="west_in" to="east_out" departLane="best" departSpeed="max" />
    <flow id="north_east" type="car" begin="0" end="3600" probability="0.04" from="north_in" to="east_out" departLane="best" departSpeed="max" />
    <flow id="north_west" type="car" begin="0" end="3600" probability="0.04" from="north_in" to="west_out" departLane="best" departSpeed="max" />
    <flow id="south_east" type="car" begin="0" end="3600" probability="0.04" from="south_in" to="east_out" departLane="best" departSpeed="max" />
    <flow id="south_west" type="car" begin="0" end="3600" probability="0.04" from="south_in" to="west_out" departLane="best" departSpeed="max" />
    <flow id="east_north" type="car" begin="0" end="3600" probability="0.03" from="east_in" to="north_out" departLane="best" departSpeed="max" />
    <flow id="east_south" type="car" begin="0" end="3600" probability="0.03" from="east_in" to="south_out" departLane="best" departSpeed="max" />
    <flow id="west_north" type="car" begin="0" end="3600" probability="0.03" from="west_in" to="north_out" departLane="best" departSpeed="max" />
    <flow id="west_south" type="car" begin="0" end="3600" probability="0.03" from="west_in" to="south_out" departLane="best" departSpeed="max" />
</routes>